@<TRIPOS>MOLECULE
SO4
 7 6 0 0 0
SMALL
GASTEIGER

@<TRIPOS>ATOM
      1 S           0.0000    0.0000    0.0000 S.O2    1  LIG111      0.2051
      2 O           0.0000   -1.2010   -0.8500 O.2     1  LIG111     -0.1183
      3 O           0.0000    1.2010   -0.8500 O.2     1  LIG111     -0.1183
      4 O          -1.2010    0.0000    0.8500 O.3     1  LIG111     -0.2312
      5 O           1.2010    0.0000    0.8500 O.3     1  LIG111     -0.2312
      6 H          -1.9932    0.0000    0.2903 H       1  LIG111      0.2469
      7 H           1.9932    0.0000    0.2903 H       1  LIG111      0.2469
@<TRIPOS>BOND
     1     1     2    2
     2     1     3    2
     3     1     4    1
     4     1     5    1
     5     4     6    1
     6     5     7    1
